pglib-opf-21.07/api/pglib_opf_case19402_goc__api.m
%%%%%%%%%%%%%%%%%%%%%%%%%%%%%%%%%%%%%%%%%%%%%%%%%%%%%%%%%%%%%%%%%%%%%%%%%%%
%%%%                                                                  %%%%%
%%%%    IEEE PES Power Grid Library - Optimal Power Flow - v21.07     %%%%%
%%%%          (https://github.com/power-grid-lib/pglib-opf)           %%%%%
%%%%             Benchmark Group - Active Power Increase              %%%%%
%%%%                         29 - July - 2021                         %%%%%
%%%%                                                                  %%%%%
%%%%%%%%%%%%%%%%%%%%%%%%%%%%%%%%%%%%%%%%%%%%%%%%%%%%%%%%%%%%%%%%%%%%%%%%%%%
function mpc = pglib_opf_case19402_goc__api
mpc.version = '2';
mpc.baseMVA = 100.0;

%% bus data
%	bus_i	type	Pd	Qd	Gs	Bs	area	Vm	Va	baseKV	zone	Vmax	Vmin
mpc.bus = [
	35250	 2	 0.0	 0.0	 0.0	 0.0	 1	    1.00000	    0.00000	 500.0	 2	    1.10000	    0.90000;
	35251	 2	 0.0	 0.0	 0.0	 0.0	 1	    1.00000	    0.00000	 500.0	 2	    1.10000	    0.90000;
	35252	 2	 0.0	 0.0	 0.0	 0.0	 1	    1.00000	    0.00000	 500.0	 2	    1.10000	    0.90000;
	35253	 1	 0.0	 0.0	 0.0	 0.0	 1	    1.00000	    0.00000	 500.0	 1	    1.10000	    0.90000;
	35254	 2	 0.0	 0.0	 0.0	 0.0	 1	    1.00000	    0.00000	 500.0	 2	    1.10000	    0.90000;
	35255	 2	 0.0	 0.0	 0.0	 0.0	 1	    1.00000	    0.00000	 500.0	 2	    1.10000	    0.90000;
	35256	 2	 0.0	 0.0	 0.0	 0.0	 1	    1.00000	    0.00000	 500.0	 2	    1.10000	    0.90000;
	35257	 2	 0.0	 0.0	 0.0	 0.0	 1	    1.00000	    0.00000	 500.0	 2	    1.10000	    0.90000;
	35258	 1	 0.0	 0.0	 0.0	 0.0	 1	    1.00000	    0.00000	 500.0	 1	    1.10000	    0.90000;
	35259	 1	 0.0	 0.0	 0.0	 0.0	 1	    1.00000	    0.00000	 345.0	 1	    1.10000	    0.90000;
	35260	 1	 0.0	 0.0	 0.0	 0.0	 1	    1.00000	    0.00000	 500.0	 1	    1.10000	    0.90000;
	35261	 1	 0.0	 0.0	 0.0	 0.0	 1	    1.00000	    0.00000	 500.0	 1	    1.10000	    0.90000;
	35262	 1	 0.0	 0.0	 0.0	 0.0	 1	    1.00000	    0.00000	 500.0	 1	    1.10000	    0.90000;
	35263	 1	 0.0	 0.0	 0.0	 0.0	 1	    1.00000	    0.00000	 138.0	 2	    1.10000	    0.90000;
	35264	 2	 0.0	 0.0	 0.0	 0.0	 1	    1.00000	    0.00000	 230.0	 2	    1.10000	    0.90000;
	35265	 2	 0.0	 0.0	 0.0	 0.0	 1	    1.00000	    0.00000	 500.0	 2	    1.10000	    0.90000;
	35266	 2	 0.0	 0.0	 0.0	 0.0	 1	    1.00000	    0.00000	 500.0	 2	    1.10000	    0.90000;
	35267	 1	 0.0	 0.0	 0.0	 0.0	 1	    1.00000	    0.00000	 500.0	 1	    1.10000	    0.90000;
	35268	 1	 0.0	 0.0	 0.0	 0.0	 1	    1.00000	    0.00000	 500.0	 1	    1.10000	    0.90000;
	35269	 1	 0.0	 0.0	 0.0	 0.0	 1	    1.00000	    0.00000	 500.0	 1	    1.10000	    0.90000;
	35270	 1	 0.0	 0.0	 0.0	 0.0	 1	    1.00000	    0.00000	 500.0	 1	    1.10000	    0.90000;
	35271	 1	 0.0	 0.0	 0.0	 0.0	 1	    1.00000	    0.00000	 500.0	 1	    1.10000	    0.90000;
	35272	 2	 0.0	 0.0	 0.0	 0.0	 1	    1.00000	    0.00000	 138.0	 2	    1.10000	    0.90000;
	35273	 1	 0.0	 0.0	 0.0	 0.0	 1	    1.00000	    0.00000	 500.0	 1	    1.10000	    0.90000;
	35274	 1	 0.0	 0.0	 0.0	 0.0	 1	    1.00000	    0.00000	 138.0	 1	    1.10000	    0.90000;
	35275	 2	 0.0	 0.0	 0.0	 0.0	 1	    1.00000	    0.00000	 138.0	 2	    1.10000	    0.90000;
	35276	 1	 0.0	 0.0	 0.0	 0.0	 1	    1.00000	    0.00000	 138.0	 2	    1.10000	    0.90000;
	35277	 2	 0.0	 0.0	 0.0	 0.0	 1	    1.00000	    0.00000	 138.0	 2	    1.10000	    0.90000;
	35278	 1	 0.0	 0.0	 0.0	 0.0	 1	    1.00000	    0.00000	 345.0	 1	    1.10000	    0.90000;
	35279	 2	 0.0	 0.0	 0.0	 0.0	 1	    1.00000	    0.00000	 138.0	 2	    1.10000	    0.90000;
	35280	 2	 0.0	 0.0	 0.0	 0.0	 1	    1.00000	    0.00000	 138.0	 2	    1.10000	    0.90000;
	35281	 2	 0.0	 0.0	 0.0	 0.0	 1	    1.00000	    0.00000	 138.0	 2	    1.10000	    0.90000;
	35282	 1	 0.0	 0.0	 0.0	 0.0	 1	    1.00000	    0.00000	 345.0	 1	    1.10000	    0.90000;
	35284	 1	 0.0	 0.0	 0.0	 0.0	 1	    1.00000	    0.00000	 230.0	 1	    1.10000	    0.90000;
	35285	 2	 100.04	 37.66	 0.0	 0.0	 1	    1.00000	    0.00000	 69.0	 2	    1.10000	    0.90000;
	35286	 1	 0.0	 0.0	 0.0	 0.0	 1	    1.00000	    0.00000	 230.0	 1	    1.10000	    0.90000;
	35287	 2	 0.0	 0.0	 0.0	 0.0	 1	    1.00000	    0.00000	 138.0	 2	    1.10000	    0.90000;
	35288	 2	 0.0	 0.0	 0.0	 0.0	 1	    1.00000	    0.00000	 69.0	 2	    1.10000	    0.90000;
	35289	 1	 0.0	 0.0	 0.0	 0.0	 1	    1.00000	    0.00000	 138.0	 2	    1.10000	    0.90000;
	35290	 2	 101.10	 38.06	 0.0	 0.0	 1	    1.00000	    0.00000	 69.0	 2	    1.10000	    0.90000;
	35291	 1	 0.0	 0.0	 0.0	 0.0	 1	    1.00000	    0.00000	 69.0	 2	    1.10000	    0.90000;
	35292	 1	 0.0	 0.0	 0.0	 0.0	 1	    1.00000	    0.00000	 230.0	 1	    1.10000	    0.90000;
	35293	 1	 0.0	 0.0	 0.0	 0.0	 1	    1.00000	    0.00000	 500.0	 1	    1.10000	    0.90000;
	35294	 2	 0.0	 0.0	 0.0	 0.0	 1	    1.00000	    0.00000	 138.0	 2	    1.10000	    0.90000;
	35295	 1	 0.0	 0.0	 0.0	 0.0	 1	    1.00000	    0.00000	 138.0	 2	    1.10000	    0.90000;
	35296	 1	 0.0	 0.0	 0.0	 0.0	 1	    1.00000	    0.00000	 500.0	 1	    1.10000	    0.90000;
	35297	 2	 0.0	 0.0	 0.0	 0.0	 1	    1.00000	    0.00000	 138.0	 2	    1.10000	    0.90000;
	35298	 2	 0.0	 0.0	 0.0	 0.0	 1	    1.00000	    0.00000	 138.0	 2	    1.10000	    0.90000;
	35300	 2	 0.0	 0.0	 0.0	 0.0	 1	    1.00000	    0.00000	 138.0	 2	    1.10000	    0.90000;
	35301	 2	 0.0	 0.0	 0.0	 0.0	 1	    1.00000	    0.00000	 138.0	 2	    1.10000	    0.90000;
	35302	 2	 0.0	 0.0	 0.0	 0.0	 1	    1.00000	    0.00000	 138.0	 2	    1.10000	    0.90000;
	35303	 1	 0.0	 0.0	 0.0	 0.0	 1	    1.00000	    0.00000	 230.0	 1	    1.10000	    0.90000;
	35304	 1	 0.0	 0.0	 0.0	 0.0	 1	    1.00000	    0.00000	 500.0	 1	    1.10000	    0.90000;
	35305	 1	 0.0	 0.0	 0.0	 0.0	 1	    1.00000	    0.00000	 230.0	 1	    1.10000	    0.90000;
	35306	 1	 0.0	 0.0	 0.0	 0.0	 1	    1.00000	    0.00000	 230.0	 1	    1.10000	    0.90000;
	35307	 1	 0.0	 0.0	 0.0	 0.0	 1	    1.00000	    0.00000	 138.0	 1	    1.10000	    0.90000;
	35308	 2	 0.0	 0.0	 0.0	 0.0	 1	    1.00000	    0.00000	 345.0	 2	    1.10000	    0.90000;
	35309	 1	 0.0	 0.0	 0.0	 0.0	 1	    1.00000	    0.00000	 765.0	 1	    1.10000	    0.90000;
	35310	 1	 0.0	 0.0	 0.0	 0.0	 1	    1.00000	    0.00000	 500.0	 1	    1.10000	    0.90000;
	35311	 2	 0.0	 0.0	 0.0	 0.0	 1	    1.00000	    0.00000	 765.0	 2	    1.10000	    0.90000;
	35312	 1	 0.0	 0.0	 0.0	 0.0	 1	    1.00000	    0.00000	 765.0	 1	    1.10000	    0.90000;
	35313	 1	 0.0	 0.0	 0.0	 0.0	 1	    1.00000	    0.00000	 500.0	 1	    1.10000	    0.90000;
	35314	 1	 0.0	 0.0	 0.0	 0.0	 1	    1.00000	    0.00000	 765.0	 1	    1.10000	    0.90000;
	35315	 1	 0.0	 0.0	 0.0	 0.0	 1	    1.00000	    0.00000	 500.0	 1	    1.10000	    0.90000;
	35316	 1	 0.0	 0.0	 0.0	 0.0	 1	    1.00000	    0.00000	 765.0	 1	    1.10000	    0.90000;
	35317	 1	 0.0	 0.0	 0.0	 0.0	 1	    1.00000	    0.00000	 765.0	 1	    1.10000	    0.90000;
	35318	 1	 0.0	 0.0	 0.0	 0.0	 1	    1.00000	    0.00000	 765.0	 1	    1.10000	    0.90000;
	35319	 1	 0.0	 0.0	 0.0	 0.0	 1	    1.00000	    0.00000	 765.0	 1	    1.10000	    0.90000;
	35320	 1	 0.0	 0.0	 0.0	 0.0	 1	    1.00000	    0.00000	 500.0	 1	    1.10000	    0.90000;
	35321	 1	 0.0	 0.0	 0.0	 0.0	 1	    1.00000	    0.00000	 765.0	 1	    1.10000	    0.90000;
	35322	 1	 0.0	 0.0	 0.0	 0.0	 1	    1.00000	    0.00000	 765.0	 1	    1.10000	    0.90000;
	35323	 2	 0.0	 0.0	 0.0	 0.0	 1	    1.00000	    0.00000	 500.0	 2	    1.10000	    0.90000;
	35324	 1	 0.0	 0.0	 0.0	 0.0	 1	    1.00000	    0.00000	 765.0	 1	    1.10000	    0.90000;
	35325	 1	 0.0	 0.0	 0.0	 0.0	 1	    1.00000	    0.00000	 765.0	 1	    1.10000	    0.90000;
	35326	 1	 0.0	 0.0	 0.0	 0.0	 1	    1.00000	    0.00000	 138.0	 2	    1.10000	    0.90000;
	35327	 1	 0.0	 0.0	 0.0	 0.0	 1	    1.00000	    0.00000	 230.0	 1	    1.10000	    0.90000;
	35328	 1	 0.0	 0.0	 0.0	 0.0	 1	    1.00000	    0.00000	 138.0	 1	    1.10000	    0.90000;
	35329	 1	 0.0	 0.0	 0.0	 0.0	 1	    1.00000	    0.00000	 765.0	 1	    1.10000	    0.90000;
	35330	 2	 0.0	 0.0	 0.0	 0.0	 1	    1.00000	    0.00000	 138.0	 2	    1.10000	    0.90000;
	35331	 2	 0.0	 0.0	 0.0	 0.0	 1	    1.00000	    0.00000	 138.0	 2	    1.10000	    0.90000;
	35332	 1	 0.0	 0.0	 0.0	 0.0	 1	    1.00000	    0.00000	 138.0	 2	    1.10000	    0.90000;
	35333	 2	 0.0	 0.0	 0.0	 0.0	 1	    1.00000	    0.00000	 500.0	 2	    1.10000	    0.90000;
	35334	 2	 0.0	 0.0	 0.0	 0.0	 1	    1.00000	    0.00000	 230.0	 2	    1.10000	    0.90000;
	35335	 2	 0.0	 0.0	 0.0	 0.0	 1	    1.00000	    0.00000	 138.0	 2	    1.10000	    0.90000;
	35336	 2	 0.0	 0.0	 0.0	 0.0	 1	    1.00000	    0.00000	 138.0	 2	    1.10000	    0.90000;
	35337	 2	 0.0	 0.0	 0.0	 0.0	 1	    1.00000	    0.00000	 138.0	 2	    1.10000	    0.90000;
	35338	 1	 0.0	 0.0	 0.0	 0.0	 1	    1.00000	    0.00000	 345.0	 1	    1.10000	    0.90000;
	35339	 1	 0.0	 0.0	 0.0	 0.0	 1	    1.00000	    0.00000	 765.0	 1	    1.10000	    0.90000;
	35340	 1	 0.0	 0.0	 0.0	 0.0	 1	    1.00000	    0.00000	 345.0	 1	    1.10000	    0.90000;
	35341	 1	 0.0	 0.0	 0.0	 0.0	 1	    1.00000	    0.00000	 765.0	 1	    1.10000	    0.90000;
	35342	 1	 0.0	 0.0	 0.0	 0.0	 1	    1.00000	    0.00000	 138.0	 1	    1.10000	    0.90000;
	35343	 3	 0.0	 0.0	 0.0	 0.0	 1	    1.00000	    0.00000	 500.0	 2	    1.10000	    0.90000;
	35344	 1	 0.0	 0.0	 0.0	 0.0	 1	    1.00000	    0.00000	 500.0	 1	    1.10000	    0.90000;
	35345	 2	 0.0	 0.0	 0.0	 0.0	 1	    1.00000	    0.00000	 500.0	 2	    1.10000	    0.90000;
	35346	 1	 0.0	 0.0	 0.0	 0.0	 1	    1.00000	    0.00000	 500.0	 1	    1.10000	    0.90000;
	35347	 2	 0.0	 0.0	 0.0	 0.0	 1	    1.00000	    0.00000	 500.0	 2	    1.10000	    0.90000;
	35348	 2	 0.0	 0.0	 0.0	 0.0	 1	    1.00000	    0.00000	 500.0	 2	    1.10000	    0.90000;
	35349	 2	 0.0	 0.0	 0.0	 0.0	 1	    1.00000	    0.00000	 138.0	 2	    1.10000	    0.90000;
	35350	 2	 0.0	 0.0	 0.0	 0.0	 1	    1.00000	    0.00000	 500.0	 2	    1.10000	    0.90000;
	35351	 2	 0.0	 0.0	 0.0	 0.0	 1	    1.00000	    0.00000	 500.0	 2	    1.10000	    0.90000;
	35352	 2	 0.0	 0.0	 0.0	 0.0	 1	    1.00000	    0.00000	 230.0	 2	    1.10000	    0.90000;
	35353	 2	 0.0	 0.0	 0.0	 0.0	 1	    1.00000	    0.00000	 500.0	 2	    1.10000	    0.90000;
	35354	 2	 0.0	 0.0	 0.0	 0.0	 1	    1.00000	    0.00000	 138.0	 2	    1.10000	    0.90000;
	35355	 2	 0.0	 0.0	 0.0	 0.0	 1	    1.00000	    0.00000	 345.0	 2	    1.10000	    0.90000;
	35356	 2	 0.0	 0.0	 0.0	 0.0	 1	    1.00000	    0.00000	 138.0	 2	    1.10000	    0.90000;
	35357	 2	 0.0	 0.0	 0.0	 0.0	 1	    1.00000	    0.00000	 230.0	 2	    1.10000	    0.90000;
	35358	 1	 0.0	 0.0	 0.0	 0.0	 1	    1.00000	    0.00000	 138.0	 2	    1.10000	    0.90000;
	35359	 1	 0.0	 0.0	 0.0	 0.0	 1	    1.00000	    0.00000	 500.0	 1	    1.10000	    0.90000;
	35360	 2	 0.0	 0.0	 0.0	 0.0	 1	    1.00000	    0.00000	 138.0	 2	    1.10000	    0.90000;
	35361	 1	 0.0	 0.0	 0.0	 0.0	 1	    1.00000	    0.00000	 500.0	 2	    1.10000	    0.90000;
	35362	 1	 0.0	 0.0	 0.0	 0.0	 1	    1.00000	    0.00000	 345.0	 2	    1.10000	    0.90000;
	35363	 1	 0.0	 0.0	 0.0	 0.0	 1	    1.00000	    0.00000	 138.0	 2	    1.10000	    0.90000;
	35364	 1	 0.0	 0.0	 0.0	 0.0	 1	    1.00000	    0.00000	 230.0	 1	    1.10000	    0.90000;
	35365	 1	 0.0	 0.0	 0.0	 0.0	 1	    1.00000	    0.00000	 138.0	 1	    1.10000	    0.90000;
	35366	 2	 0.0	 0.0	 0.0	 0.0	 1	    1.00000	    0.00000	 138.0	 2	    1.10000	    0.90000;
	35367	 1	 0.0	 0.0	 0.0	 0.0	 1	    1.00000	    0.00000	 138.0	 2	    1.10000	    0.90000;
	35368	 2	 0.0	 0.0	 0.0	 0.0	 1	    1.00000	    0.00000	 69.0	 2	    1.10000	    0.90000;
	35369	 1	 0.0	 0.0	 0.0	 0.0	 1	    1.00000	    0.00000	 500.0	 1	    1.10000	    0.90000;
	35370	 2	 74.19	 27.93	 0.0	 0.0	 1	    1.00000	    0.00000	 69.0	 2	    1.10000	    0.90000;
	35371	 1	 0.0	 0.0	 0.0	 0.0	 1	    1.00000	    0.00000	 138.0	 2	    1.10000	    0.90000;
	35372	 1	 154.78	 58.27	 0.0	 0.0	 1	    1.00000	    0.00000	 69.0	 2	    1.10000	    0.90000;
	35373	 1	 0.0	 0.0	 0.0	 0.0	 1	    1.00000	    0.00000	 138.0	 2	    1.10000	    0.90000;
	35374	 1	 0.0	 0.0	 0.0	 0.0	 1	    1.00000	    0.00000	 500.0	 1	    1.10000	    0.90000;
	35375	 1	 26.64	 10.03	 0.0	 0.0	 1	    1.00000	    0.00000	 69.0	 2	    1.10000	    0.90000;
	35376	 1	 0.0	 0.0	 0.0	 0.0	 1	    1.00000	    0.00000	 138.0	 2	    1.10000	    0.90000;
	35377	 1	 0.0	 0.0	 0.0	 0.0	 1	    1.00000	    0.00000	 765.0	 1	    1.10000	    0.90000;
	35378	 1	 0.0	 0.0	 0.0	 0.0	 1	    1.00000	    0.00000	 765.0	 1	    1.10000	    0.90000;
	35379	 1	 0.0	 0.0	 0.0	 0.0	 1	    1.00000	    0.00000	 765.0	 1	    1.10000	    0.90000;
	35380	 1	 0.0	 0.0	 0.0	 0.0	 1	    1.00000	    0.00000	 765.0	 1	    1.10000	    0.90000;
	35381	 1	 0.0	 0.0	 0.0	 0.0	 1	    1.00000	    0.00000	 765.0	 1	    1.10000	    0.90000;
	35382	 1	 0.0	 0.0	 0.0	 0.0	 1	    1.00000	    0.00000	 765.0	 1	    1.10000	    0.90000;
	35383	 1	 0.0	 0.0	 0.0	 0.0	 1	    1.00000	    0.00000	 500.0	 1	    1.10000	    0.90000;
	35384	 1	 0.0	 0.0	 0.0	 0.0	 1	    1.00000	    0.00000	 500.0	 1	    1.10000	    0.90000;
	35385	 1	 0.0	 0.0	 0.0	 0.0	 1	    1.00000	    0.00000	 500.0	 2	    1.10000	    0.90000;
	35386	 1	 0.0	 0.0	 0.0	 0.0	 1	    1.00000	    0.00000	 765.0	 1	    1.10000	    0.90000;
	35387	 2	 0.0	 0.0	 0.0	 0.0	 1	    1.00000	    0.00000	 230.0	 2	    1.10000	    0.90000;
	35388	 1	 0.0	 0.0	 0.0	 0.0	 1	    1.00000	    0.00000	 765.0	 1	    1.10000	    0.90000;
	35389	 1	 0.0	 0.0	 0.0	 0.0	 1	    1.00000	    0.00000	 345.0	 2	    1.10000	    0.90000;
	35390	 1	 0.0	 0.0	 0.0	 0.0	 1	    1.00000	    0.00000	 345.0	 1	    1.10000	    0.90000;
	35391	 1	 0.0	 0.0	 0.0	 0.0	 1	    1.00000	    0.00000	 138.0	 2	    1.10000	    0.90000;
	35392	 1	 0.0	 0.0	 0.0	 0.0	 1	    1.00000	    0.00000	 765.0	 1	    1.10000	    0.90000;
	35393	 1	 0.0	 0.0	 0.0	 0.0	 1	    1.00000	    0.00000	 138.0	 1	    1.10000	    0.90000;
	35394	 2	 0.0	 0.0	 0.0	 0.0	 1	    1.00000	    0.00000	 765.0	 2	    1.10000	    0.90000;
	35395	 1	 0.0	 0.0	 0.0	 0.0	 1	    1.00000	    0.00000	 765.0	 1	    1.10000	    0.90000;
	35396	 2	 0.0	 0.0	 0.0	 0.0	 1	    1.00000	    0.00000	 138.0	 2	    1.10000	    0.90000;
	35397	 2	 8.26	 3.11	 0.0	 0.0	 1	    1.00000	    0.00000	 69.0	 2	    1.10000	    0.90000;
	35398	 2	 0.0	 0.0	 0.0	 0.0	 1	    1.00000	    0.00000	 138.0	 2	    1.10000	    0.90000;
	35399	 2	 0.0	 0.0	 0.0	 0.0	 1	    1.00000	    0.00000	 138.0	 2	    1.10000	    0.90000;
	35400	 1	 0.0	 0.0	 0.0	 0.0	 1	    1.00000	    0.00000	 765.0	 1	    1.10000	    0.90000;
	35401	 2	 0.0	 0.0	 0.0	 0.0	 1	    1.00000	    0.00000	 138.0	 2	    1.10000	    0.90000;
	35402	 1	 0.0	 0.0	 0.0	 0.0	 1	    1.00000	    0.00000	 765.0	 1	    1.10000	    0.90000;
	35403	 2	 0.0	 0.0	 0.0	 0.0	 1	    1.00000	    0.00000	 138.0	 2	    1.10000	    0.90000;
	35404	 1	 0.0	 0.0	 0.0	 0.0	 1	    1.00000	    0.00000	 138.0	 1	    1.10000	    0.90000;
	35405	 1	 0.0	 0.0	 0.0	 0.0	 1	    1.00000	    0.00000	 230.0	 1	    1.10000	    0.90000;
	35406	 2	 0.0	 0.0	 0.0	 0.0	 1	    1.00000	    0.00000	 138.0	 2	    1.10000	    0.90000;
	35407	 1	 0.0	 0.0	 0.0	 0.0	 1	    1.00000	    0.00000	 345.0	 1	    1.10000	    0.90000;
	35408	 2	 0.0	 0.0	 0.0	 0.0	 1	    1.00000	    0.00000	 138.0	 2	    1.10000	    0.90000;
	35409	 2	 0.0	 0.0	 0.0	 0.0	 1	    1.00000	    0.00000	 138.0	 2	    1.10000	    0.90000;
	35410	 2	 0.0	 0.0	 0.0	 0.0	 1	    1.00000	    0.00000	 138.0	 2	    1.10000	    0.90000;
	35411	 1	 0.0	 0.0	 0.0	 0.0	 1	    1.00000	    0.00000	 765.0	 1	    1.10000	    0.90000;
	35412	 2	 0.0	 0.0	 0.0	 0.0	 1	    1.00000	    0.00000	 138.0	 2	    1.10000	    0.90000;
	35413	 2	 15.59	 5.87	 0.0	 0.0	 1	    1.00000	    0.00000	 69.0	 2	    1.10000	    0.90000;
	35414	 1	 0.0	 0.0	 0.0	 0.0	 1	    1.00000	    0.00000	 500.0	 1	    1.10000	    0.90000;
	35415	 2	 52.65	 19.82	 0.0	 0.0	 1	    1.00000	    0.00000	 69.0	 2	    1.10000	    0.90000;
	35416	 2	 0.0	 0.0	 0.0	 0.0	 1	    1.00000	    0.00000	 138.0	 2	    1.10000	    0.90000;
	35417	 2	 0.0	 0.0	 0.0	 0.0	 1	    1.00000	    0.00000	 138.0	 2	    1.10000	    0.90000;
	35418	 1	 28.98	 10.91	 0.0	 0.0	 1	    1.00000	    0.00000	 69.0	 2	    1.10000	    0.90000;
	35419	 2	 0.0	 0.0	 0.0	 0.0	 1	    1.00000	    0.00000	 138.0	 2	    1.10000	    0.90000;
	35420	 2	 60.78	 22.88	 0.0	 0.0	 1	    1.00000	    0.00000	 69.0	 2	    1.10000	    0.90000;
	35421	 1	 0.0	 0.0	 0.0	 0.0	 1	    1.00000	    0.00000	 138.0	 2	    1.10000	    0.90000;
	35422	 1	 11.00	 4.14	 0.0	 0.0	 1	    1.00000	    0.00000	 69.0	 2	    1.10000	    0.90000;
	35423	 1	 0.0	 0.0	 0.0	 0.0	 1	    1.00000	    0.00000	 69.0	 2	    1.10000	    0.90000;
	35424	 1	 2.63	 0.34	 0.0	 0.0	 1	    1.00000	    0.00000	 69.0	 1	    1.10000	    0.90000;
	35425	 1	 8.05	 2.25	 0.0	 0.0	 1	    1.00000	    0.00000	 230.0	 1	    1.10000	    0.90000;
	35426	 1	 0.0	 0.0	 0.0	 0.0	 1	    1.00000	    0.00000	 500.0	 1	    1.10000	    0.90000;
	35427	 1	 16.90	 4.70	 0.0	 0.0	 1	    1.00000	    0.00000	 500.0	 1	    1.10000	    0.90000;
	35428	 1	 51.27	 14.25	 0.0	 14.7009455993	 1	    1.00000	    0.00000	 500.0	 1	    1.10000	    0.90000;
	35429	 1	 0.0	 0.0	 0.0	 0.0	 1	    1.00000	    0.00000	 230.0	 1	    1.10000	    0.90000;
	35430	 1	 55.43	 6.74	 0.0	 13.9807168694	 1	    1.00000	    0.00000	 138.0	 1	    1.10000	    0.90000;
	35431	 1	 81.16	 22.56	 0.0	 0.0	 1	    1.00000	    0.00000	 500.0	 1	    1.10000	    0.90000;
	35432	 1	 43.66	 12.14	 0.0	 0.0	 1	    1.00000	    0.00000	 500.0	 1	    1.10000	    0.90000;
	35433	 1	 0.0	 0.0	 0.0	 0.0	 1	    1.00000	    0.00000	 138.0	 1	    1.10000	    0.90000;
	35434	 1	 2.99	 0.60	 0.0	 33.4868816573	 1	    1.00000	    0.00000	 69.0	 1	    1.10000	    0.90000;
	35435	 1	 0.0	 0.0	 0.0	 0.0	 1	    1.00000	    0.00000	 138.0	 1	    1.10000	    0.90000;
	35436	 1	 7.76	 1.67	 0.0	 0.0	 1	    1.00000	    0.00000	 69.0	 1	    1.10000	    0.90000;
	35437	 1	 18.78	 5.22	 0.0	 -93.0617328035	 1	    1.00000	    0.00000	 500.0	 1	    1.10000	    0.90000;
	35438	 1	 77.87	 21.65	 0.0	 0.0	 1	    1.00000	    0.00000	 500.0	 1	    1.10000	    0.90000;
	35439	 1	 30.77	 7.48	 0.0	 -16.8447037058	 1	    1.00000	    0.00000	 345.0	 1	    1.10000	    0.90000;
	35441	 1	 0.0	 0.0	 0.0	 0.0	 1	    1.00000	    0.00000	 500.0	 1	    1.10000	    0.90000;
	35442	 1	 34.85	 9.69	 0.0	 0.0	 1	    1.00000	    0.00000	 500.0	 1	    1.10000	    0.90000;
	35443	 1	 0.0	 0.0	 0.0	 0.0	 1	    1.00000	    0.00000	 138.0	 1	    1.10000	    0.90000;
	35444	 1	 5.27	 1.17	 0.0	 0.0	 1	    1.00000	    0.00000	 69.0	 1	    1.10000	    0.90000;
	35445	 1	 0.0	 0.0	 0.0	 0.0	 1	    1.00000	    0.00000	 138.0	 1	    1.10000	    0.90000;
	35446	 1	 0.0	 0.0	 0.0	 0.0	 1	    1.00000	    0.00000	 138.0	 1	    1.10000	    0.90000;
	35447	 1	 29.29	 5.66	 0.0	 10.5080924165	 1	    1.00000	    0.00000	 138.0	 1	    1.10000	    0.90000;
	35448	 1	 32.38	 5.33	 0.0	 0.0	 1	    1.00000	    0.00000	 345.0	 1	    1.10000	    0.90000;
	35449	 1	 38.77	 11.28	 0.0	 0.0	 1	    1.00000	    0.00000	 230.0	 1	    1.10000	    0.90000;
	35452	 1	 31.68	 6.12	 0.0	 20.066472673	 1	    1.00000	    0.00000	 230.0	 1	    1.10000	    0.90000;
	35453	 1	 0.0	 0.0	 0.0	 0.0	 1	    1.00000	    0.00000	 138.0	 1	    1.10000	    0.90000;
	35454	 1	 0.0	 0.0	 0.0	 0.0	 1	    1.00000	    0.00000	 138.0	 1	    1.10000	    0.90000;
...
];

%% generator data
%	bus	Pg	Qg	Qmax	Qmin	Vg	mBase	status	Pmax	Pmin
mpc.gen = [
	35250	 927.7	 0.0	 653.0	 -653.0	 1.0	 100.0	 1	 1305	 550.4; % NUC
	35250	 1036.75	 0.0	 761.0	 -761.0	 1.0	 100.0	 1	 1522	 551.5; % COW
	35250	 831.0	 0.0	 606.0	 -606.0	 1.0	 100.0	 1	 1212	 450.0; % COW
	35251	 595.5	 8.75	 550.5	 -533.0	 1.0	 100.0	 1	 1066	 125.0; % COW
	35251	 417.5	 97.75	 550.5	 -355.0	 1.0	 100.0	 1	 710	 125.0; % COW
	35252	 519.5	 0.0	 445.0	 -445.0	 1.0	 100.0	 1	 889	 150.0; % NG
	35252	 519.0	 0.0	 444.0	 -444.0	 1.0	 100.0	 1	 888	 150.0; % COW
	35252	 599.5	 0.0	 525.0	 -525.0	 1.0	 100.0	 1	 1049	 150.0; % NUC
	35252	 551.5	 0.0	 477.0	 -477.0	 1.0	 100.0	 1	 953	 150.0; % COW
	35254	 160.0	 57.8	 250.2	 -134.6	 1.0	 100.0	 1	 220	 100.0; % NG
	35254	 240.5	 0.0	 215.0	 -215.0	 1.0	 100.0	 1	 429	 52.0; % COW
	35254	 217.5	 0.0	 192.0	 -192.0	 1.0	 100.0	 1	 383	 52.0; % NG
	35254	 109.25	 -8.5	 105.4	 -122.4	 1.0	 100.0	 1	 175	 43.5; % NG
	35254	 71.75	 -8.5	 105.4	 -122.4	 1.0	 100.0	 1	 104	 39.5; % NG
	35254	 528.25	 38.45	 488.9	 -412.0	 1.0	 100.0	 1	 824	 232.5; % COW
	35254	 243.5	 0.0	 211.0	 -211.0	 1.0	 100.0	 1	 422	 65.0; % NG
	35255	 919.0	 0.0	 744.0	 -744.0	 1.0	 100.0	 1	 1488	 350.0; % COW
	35255	 355.5	 0.0	 338.0	 -338.0	 1.0	 100.0	 1	 676	 35.0; % NG
	35255	 192.0	 0.0	 175.0	 -175.0	 1.0	 100.0	 1	 349	 35.0; % NG
	35255	 197.0	 0.0	 180.0	 -180.0	 1.0	 100.0	 1	 359	 35.0; % NG
	35256	 191.5	 0.0	 175.0	 -175.0	 1.0	 100.0	 1	 350	 33.0; % PEL
	35256	 203.5	 0.0	 176.0	 -176.0	 1.0	 100.0	 1	 352	 55.0; % NG
	35256	 330.5	 0.0	 303.0	 -303.0	 1.0	 100.0	 1	 606	 55.0; % NG
	35256	 283.0	 0.0	 267.0	 -267.0	 1.0	 100.0	 1	 533	 33.0; % NG
	35256	 193.5	 0.0	 177.0	 -177.0	 1.0	 100.0	 1	 354	 33.0; % NG
	35256	 188.5	 0.0	 172.0	 -172.0	 1.0	 100.0	 1	 344	 33.0; % NG
	35256	 175.5	 0.0	 159.0	 -159.0	 1.0	 100.0	 1	 318	 33.0; % NG
	35256	 284.5	 0.0	 268.0	 -268.0	 1.0	 100.0	 1	 536	 33.0; % NG
	35256	 210.5	 0.0	 194.0	 -194.0	 1.0	 100.0	 1	 388	 33.0; % NG
	35256	 192.5	 0.0	 176.0	 -176.0	 1.0	 100.0	 1	 352	 33.0; % NG
	35256	 169.0	 0.0	 153.0	 -153.0	 1.0	 100.0	 1	 305	 33.0; % NG
	35257	 343.25	 0.0	 300.0	 -300.0	 1.0	 100.0	 1	 599	 87.5; % NG
	35257	 423.75	 0.0	 380.0	 -380.0	 1.0	 100.0	 1	 760	 87.5; % COW
	35257	 318.75	 0.0	 295.0	 -295.0	 1.0	 100.0	 1	 590	 47.5; % COW
	35264	 239.18075	 0.0	 212.0	 -212.0	 1.0	 100.0	 1	 424	 54.3615; % NG
	35264	 224.64275	 0.0	 198.0	 -198.0	 1.0	 100.0	 1	 395	 54.2855; % NG
	35264	 153.0125	 0.0	 129.0	 -129.0	 1.0	 100.0	 1	 257	 49.025; % COW
	35264	 101.5125	 18.85	 114.7	 -77.0	 1.0	 100.0	 1	 154	 49.025; % NG
	35264	 223.7	 0.0	 196.0	 -196.0	 1.0	 100.0	 1	 391	 56.4; % NG
	35264	 194.2	 0.0	 166.0	 -166.0	 1.0	 100.0	 1	 332	 56.4; % NG
	35265	 231.5	 0.0	 209.0	 -209.0	 1.0	 100.0	 1	 418	 45.0; % NG
	35265	 128.0	 0.0	 106.0	 -106.0	 1.0	 100.0	 1	 211	 45.0; % NG
	35265	 213.0	 0.0	 191.0	 -191.0	 1.0	 100.0	 1	 381	 45.0; % NG
	35265	 94.75	 29.45	 188.9	 -130.0	 1.0	 100.0	 1	 172	 17.5; % NG
	35266	 160.0	 0.0	 138.0	 -138.0	 1.0	 100.0	 1	 275	 45.0; % NG
	35266	 129.0	 0.0	 107.0	 -107.0	 1.0	 100.0	 1	 213	 45.0; % NG
	35266	 145.5	 0.0	 123.0	 -123.0	 1.0	 100.0	 1	 246	 45.0; % COW
	35266	 339.0	 0.0	 324.0	 -324.0	 1.0	 100.0	 1	 648	 30.0; % COW
	35272	 186.5	 0.0	 187.0	 -187.0	 1.0	 100.0	 1	 373	 0.0; % NG
	35272	 89.5	 0.0	 90.0	 -90.0	 1.0	 100.0	 1	 179	 0.0; % PEL
	35275	 34.5	 5.05	 45.1	 -35.0	 1.0	 100.0	 1	 69	 0.0; % COW
	35275	 38.5	 3.05	 45.1	 -39.0	 1.0	 100.0	 1	 77	 0.0; % NG
	35275	 103.5	 0.0	 104.0	 -104.0	 1.0	 100.0	 1	 207	 0.0; % PEL
	35277	 41.5	 0.0	 42.0	 -42.0	 1.0	 100.0	 1	 83	 0.0; % PEL
	35277	 44.0	 0.0	 44.0	 -44.0	 1.0	 100.0	 1	 88	 0.0; % NG
	35279	 71.25	 0.0	 67.0	 -67.0	 1.0	 100.0	 1	 133	 9.5; % PEL
	35279	 57.25	 0.0	 53.0	 -53.0	 1.0	 100.0	 1	 106	 8.5; % NG
	35280	 271.0	 0.0	 271.0	 -271.0	 1.0	 100.0	 1	 542	 0.0; % NG
	35281	 58.5	 0.0	 46.0	 -46.0	 1.0	 100.0	 1	 92	 25.0; % NG
	35281	 93.5	 0.0	 81.0	 -81.0	 1.0	 100.0	 1	 162	 25.0; % NG
	35285	 243.5	 0.0	 244.0	 -244.0	 1.0	 100.0	 1	 487	 0.0; % NG
	35287	 81.16675	 0.0	 80.0	 -80.0	 1.0	 100.0	 1	 160	 2.3335; % COW
	35288	 24.0	 0.0	 24.0	 -24.0	 1.0	 100.0	 1	 48	 0.0; % NG
	35288	 45.5	 0.0	 46.0	 -46.0	 1.0	 100.0	 1	 91	 0.0; % NG
	35290	 58.5	 0.0	 59.0	 -59.0	 1.0	 100.0	 1	 117	 0.0; % NG
	35290	 61.0	 0.0	 61.0	 -61.0	 1.0	 100.0	 1	 122	 0.0; % NG
	35290	 33.5	 0.0	 34.0	 -34.0	 1.0	 100.0	 1	 67	 0.0; % NG
	35290	 29.0	 0.0	 29.0	 -29.0	 1.0	 100.0	 1	 58	 0.0; % NG
	35290	 23.0	 0.0	 23.0	 -23.0	 1.0	 100.0	 1	 46	 0.0; % NG
	35294	 147.0	 0.0	 147.0	 -147.0	 1.0	 100.0	 1	 294	 0.0; % NG
	35294	 42.5	 0.0	 43.0	 -43.0	 1.0	 100.0	 1	 85	 0.0; % NG
	35294	 43.0	 0.0	 43.0	 -43.0	 1.0	 100.0	 1	 86	 0.0; % PEL
	35297	 71.0	 0.0	 71.0	 -71.0	 1.0	 100.0	 1	 142	 0.0; % NG
	35297	 76.5	 0.0	 77.0	 -77.0	 1.0	 100.0	 1	 153	 0.0; % PEL
	35297	 59.5	 0.0	 60.0	 -60.0	 1.0	 100.0	 1	 119	 0.0; % PEL
	35298	 46.5	 0.0	 47.0	 -47.0	 1.0	 100.0	 1	 93	 0.0; % PEL
	35298	 131.0	 0.0	 131.0	 -131.0	 1.0	 100.0	 1	 262	 0.0; % NG
	35298	 69.0	 0.0	 69.0	 -69.0	 1.0	 100.0	 1	 138	 0.0; % PEL
	35298	 47.0	 0.0	 47.0	 -47.0	 1.0	 100.0	 1	 94	 0.0; % COW
	35300	 25.0	 0.0	 25.0	 -25.0	 1.0	 100.0	 1	 50	 0.0; % COW
	35300	 42.5	 0.0	 43.0	 -43.0	 1.0	 100.0	 1	 85	 0.0; % NG
	35300	 80.0	 0.0	 80.0	 -80.0	 1.0	 100.0	 1	 160	 0.0; % NG
	35300	 59.0	 0.0	 59.0	 -59.0	 1.0	 100.0	 1	 118	 0.0; % NG
	35301	 54.5	 0.0	 55.0	 -55.0	 1.0	 100.0	 1	 109	 0.0; % PEL
	35301	 41.5	 0.0	 42.0	 -42.0	 1.0	 100.0	 1	 83	 0.0; % PEL
	35302	 219.25	 0.0	 216.0	 -216.0	 1.0	 100.0	 1	 432	 6.5; % NG
	35308	 650.0	 0.0	 540.0	 -540.0	 1.0	 100.0	 1	 1080	 220.0; % COW
	35311	 530.75	 0.0	 492.0	 -492.0	 1.0	 100.0	 1	 983	 78.5; % COW
	35311	 526.75	 0.0	 488.0	 -488.0	 1.0	 100.0	 1	 976	 77.5; % NG
	35311	 524.75	 0.0	 487.0	 -487.0	 1.0	 100.0	 1	 973	 76.5; % NG
	35311	 522.5	 0.0	 485.0	 -485.0	 1.0	 100.0	 1	 970	 75.0; % NG
	35323	 120.5	 1.55	 101.1	 -98.0	 1.0	 100.0	 1	 196	 45.0; % NG
	35323	 198.0	 0.0	 161.0	 -161.0	 1.0	 100.0	 1	 321	 75.0; % NG
	35330	 28.0	 0.0	 28.0	 -28.0	 1.0	 100.0	 1	 56	 0.0; % NG
	35330	 17.5	 0.0	 18.0	 -18.0	 1.0	 100.0	 1	 35	 0.0; % PEL
	35330	 17.5	 0.0	 18.0	 -18.0	 1.0	 100.0	 1	 35	 0.0; % PEL
	35330	 39.5	 0.0	 40.0	 -40.0	 1.0	 100.0	 1	 79	 0.0; % NG
	35330	 14.0	 0.0	 14.0	 -14.0	 1.0	 100.0	 1	 28	 0.0; % NG
	35331	 201.25	 0.0	 192.0	 -192.0	 1.0	 100.0	 1	 384	 18.5; % COW
	35333	 461.5	 0.0	 462.0	 -462.0	 1.0	 100.0	 1	 923	 0.0; % PEL
	35334	 58.75	 0.0	 55.0	 -55.0	 1.0	 100.0	 1	 110	 7.5; % NG
	35334	 165.25	 0.0	 162.0	 -162.0	 1.0	 100.0	 1	 323	 7.5; % COW
	35335	 68.5	 0.0	 69.0	 -69.0	 1.0	 100.0	 1	 137	 0.0; % NG
	35335	 51.5	 0.0	 52.0	 -52.0	 1.0	 100.0	 1	 103	 0.0; % PEL
	35335	 54.0	 0.0	 54.0	 -54.0	 1.0	 100.0	 1	 108	 0.0; % PEL
	35335	 58.0	 0.0	 58.0	 -58.0	 1.0	 100.0	 1	 116	 0.0; % NG
	35335	 132.0	 0.0	 132.0	 -132.0	 1.0	 100.0	 1	 264	 0.0; % NG
	35336	 40.5	 0.0	 41.0	 -41.0	 1.0	 100.0	 1	 81	 0.0; % NG
	35336	 74.0	 0.0	 74.0	 -74.0	 1.0	 100.0	 1	 148	 0.0; % NG
	35336	 61.0	 0.0	 61.0	 -61.0	 1.0	 100.0	 1	 122	 0.0; % PEL
	35336	 45.0	 0.0	 45.0	 -45.0	 1.0	 100.0	 1	 90	 0.0; % NG
	35336	 34.0	 0.0	 34.0	 -34.0	 1.0	 100.0	 1	 68	 0.0; % NG
	35337	 120.75	 0.0	 115.0	 -115.0	 1.0	 100.0	 1	 230	 11.5; % NG
	35343	 259.0	 0.0	 1225.2	 -1225.2	 1.0	 100.0	 1	 368	 150.0; % NG
	35345	 391.0	 0.0	 364.0	 -364.0	 1.0	 100.0	 1	 727	 55.0; % NG
	35345	 391.0	 0.0	 364.0	 -364.0	 1.0	 100.0	 1	 727	 55.0; % NG
	35345	 391.0	 0.0	 364.0	 -364.0	 1.0	 100.0	 1	 727	 55.0; % NG
	35345	 363.5	 0.0	 336.0	 -336.0	 1.0	 100.0	 1	 672	 55.0; % NG
	35345	 435.75	 0.0	 395.0	 -395.0	 1.0	 100.0	 1	 789	 82.5; % NG
	35345	 390.75	 0.0	 350.0	 -350.0	 1.0	 100.0	 1	 699	 82.5; % NG
	35347	 999.5	 0.0	 912.0	 -912.0	 1.0	 100.0	 1	 1824	 175.0; % COW
	35348	 230.725	 0.0	 231.0	 -231.0	 1.0	 100.0	 1	 461	 0.45; % NG
	35348	 304.225	 0.0	 304.0	 -304.0	 1.0	 100.0	 1	 608	 0.45; % NG
	35348	 190.225	 0.0	 190.0	 -190.0	 1.0	 100.0	 1	 380	 0.45; % NG
	35349	 60.25	 17.55	 123.9	 -88.8	 1.0	 100.0	 1	 93	 27.5; % NG
	35349	 44.75	 17.55	 123.9	 -88.8	 1.0	 100.0	 1	 62	 27.5; % NG
	35350	 225.75	 0.0	 673.2	 -673.2	 1.0	 100.0	 1	 394	 57.5; % NG
	35350	 265.75	 0.0	 673.2	 -673.2	 1.0	 100.0	 1	 474	 57.5; % NG
	35350	 207.25	 0.0	 673.2	 -673.2	 1.0	 100.0	 1	 357	 57.5; % NG
	35351	 154.275	 0.0	 150.0	 -150.0	 1.0	 100.0	 1	 244	 64.55; % NG
	35351	 295.775	 0.0	 264.0	 -264.0	 1.0	 100.0	 1	 527	 64.55; % NG
	35351	 199.275	 0.0	 167.0	 -167.0	 1.0	 100.0	 1	 334	 64.55; % NG
	35352	 284.5	 0.0	 265.2	 -265.2	 1.0	 100.0	 1	 514	 55.0; % NG
	35352	 249.0	 0.0	 265.2	 -265.2	 1.0	 100.0	 1	 443	 55.0; % COW
	35352	 255.0	 0.0	 265.2	 -265.2	 1.0	 100.0	 1	 455	 55.0; % NG
	35353	 165.1	 0.0	 145.0	 -145.0	 1.0	 100.0	 1	 289	 41.2; % NG
	35353	 144.6	 0.0	 124.0	 -124.0	 1.0	 100.0	 1	 248	 41.2; % NG
	35353	 143.1	 0.0	 123.0	 -123.0	 1.0	 100.0	 1	 245	 41.2; % NG
	35353	 277.4	 0.0	 261.0	 -261.0	 1.0	 100.0	 1	 521	 33.8; % COW
	35353	 146.9	 0.0	 130.0	 -130.0	 1.0	 100.0	 1	 260	 33.8; % NG
	35353	 142.4	 0.0	 126.0	 -126.0	 1.0	 100.0	 1	 251	 33.8; % NG
	35354	 304.0	 0.0	 282.0	 -282.0	 1.0	 100.0	 1	 563	 45.0; % NG
	35354	 325.0	 0.0	 303.0	 -303.0	 1.0	 100.0	 1	 605	 45.0; % NG
	35355	 295.75	 0.0	 272.0	 -272.0	 1.0	 100.0	 1	 544	 47.5; % COW
	35355	 143.75	 0.0	 120.0	 -120.0	 1.0	 100.0	 1	 240	 47.5; % NG
	35356	 174.5	 0.0	 157.0	 -157.0	 1.0	 100.0	 1	 314	 35.0; % NG
	35357	 237.825	 0.0	 205.0	 -205.0	 1.0	 100.0	 1	 410	 65.65; % NG
	35357	 245.825	 0.0	 213.0	 -213.0	 1.0	 100.0	 1	 426	 65.65; % COW
	35357	 260.325	 0.0	 228.0	 -228.0	 1.0	 100.0	 1	 455	 65.65; % COW
	35360	 90.25	 0.0	 97.2	 -97.2	 1.0	 100.0	 1	 154	 26.5; % NG
	35360	 45.75	 0.0	 97.2	 -97.2	 1.0	 100.0	 1	 65	 26.5; % NG
	35360	 40.75	 0.0	 97.2	 -97.2	 1.0	 100.0	 1	 55	 26.5; % NG
	35366	 35.5	 0.0	 87.6	 -87.6	 1.0	 100.0	 1	 59	 12.0; % PEL
	35366	 21.5	 0.0	 87.6	 -87.6	 1.0	 100.0	 1	 31	 12.0; % PEL
	35366	 63.0	 0.0	 87.6	 -87.6	 1.0	 100.0	 1	 114	 12.0; % NG
	35368	 182.25	 0.0	 177.0	 -177.0	 1.0	 100.0	 1	 354	 10.5; % NG
	35370	 44.125	 0.0	 43.0	 -43.0	 1.0	 100.0	 1	 86	 2.25; % NG
	35370	 144.125	 0.0	 143.0	 -143.0	 1.0	 100.0	 1	 286	 2.25; % NG
	35387	 257.55	 0.0	 238.0	 -238.0	 1.0	 100.0	 1	 476	 39.1; % NG
	35387	 251.2	 0.0	 227.0	 -227.0	 1.0	 100.0	 1	 454	 48.4; % COW
	35387	 264.05	 0.0	 245.0	 -245.0	 1.0	 100.0	 1	 489	 39.1; % NG
	35394	 251.0	 0.0	 251.0	 -251.0	 1.0	 100.0	 1	 502	 0.0; % NG
	35394	 219.0	 0.0	 219.0	 -219.0	 1.0	 100.0	 1	 438	 0.0; % NG
	35394	 300.0	 0.0	 300.0	 -300.0	 1.0	 100.0	 1	 600	 0.0; % NG
	35396	 35.0	 0.0	 35.0	 -35.0	 1.0	 100.0	 1	 70	 0.0; % PEL
	35396	 61.0	 0.0	 61.0	 -61.0	 1.0	 100.0	 1	 122	 0.0; % NG
	35396	 35.5	 0.0	 36.0	 -36.0	 1.0	 100.0	 1	 71	 0.0; % PEL
	35397	 101.5	 0.0	 102.0	 -102.0	 1.0	 100.0	 1	 203	 0.0; % PEL
	35398	 70.5	 0.0	 71.0	 -71.0	 1.0	 100.0	 1	 141	 0.0; % NG
	35398	 80.0	 0.0	 80.0	 -80.0	 1.0	 100.0	 1	 160	 0.0; % NG
	35398	 109.0	 0.0	 109.0	 -109.0	 1.0	 100.0	 1	 218	 0.0; % NG
	35399	 21.5	 0.0	 22.0	 -22.0	 1.0	 100.0	 1	 43	 0.0; % COW
	35399	 32.5	 0.0	 33.0	 -33.0	 1.0	 100.0	 1	 65	 0.0; % NG
	35401	 34.0	 0.0	 34.0	 -34.0	 1.0	 100.0	 1	 68	 0.0; % PEL
	35401	 51.0	 0.0	 51.0	 -51.0	 1.0	 100.0	 1	 102	 0.0; % NG
	35401	 44.5	 0.0	 45.0	 -45.0	 1.0	 100.0	 1	 89	 0.0; % NG
	35401	 32.0	 0.0	 32.0	 -32.0	 1.0	 100.0	 1	 64	 0.0; % NG
	35403	 33.5	 0.0	 34.0	 -34.0	 1.0	 100.0	 1	 67	 0.0; % NG
	35403	 22.0	 0.0	 22.0	 -22.0	 1.0	 100.0	 1	 44	 0.0; % NG
	35403	 26.5	 0.0	 27.0	 -27.0	 1.0	 100.0	 1	 53	 0.0; % PEL
	35406	 76.0	 0.0	 76.0	 -76.0	 1.0	 100.0	 1	 152	 0.0; % NG
	35406	 60.5	 0.0	 61.0	 -61.0	 1.0	 100.0	 1	 121	 0.0; % NG
	35408	 46.5	 0.0	 47.0	 -47.0	 1.0	 100.0	 1	 93	 0.0; % PEL
	35408	 29.0	 0.0	 29.0	 -29.0	 1.0	 100.0	 1	 58	 0.0; % NG
	35408	 95.0	 0.0	 95.0	 -95.0	 1.0	 100.0	 1	 190	 0.0; % NG
	35409	 32.5	 0.0	 33.0	 -33.0	 1.0	 100.0	 1	 65	 0.0; % COW
	35409	 29.5	 0.0	 30.0	 -30.0	 1.0	 100.0	 1	 59	 0.0; % PEL
	35409	 105.0	 0.0	 105.0	 -105.0	 1.0	 100.0	 1	 210	 0.0; % COW
	35409	 74.0	 0.0	 74.0	 -74.0	 1.0	 100.0	 1	 148	 0.0; % NG
	35410	 32.5	 0.0	 33.0	 -33.0	 1.0	 100.0	 1	 65	 0.0; % NG
	35410	 123.0	 0.0	 123.0	 -123.0	 1.0	 100.0	 1	 246	 0.0; % NG
	35410	 45.5	 0.0	 46.0	 -46.0	 1.0	 100.0	 1	 91	 0.0; % NG
	35410	 75.0	 0.0	 75.0	 -75.0	 1.0	 100.0	 1	 150	 0.0; % NG
	35412	 80.0	 0.0	 80.0	 -80.0	 1.0	 100.0	 1	 160	 0.0; % NG
	35412	 117.5	 0.0	 118.0	 -118.0	 1.0	 100.0	 1	 235	 0.0; % NG
	35412	 35.5	 0.0	 36.0	 -36.0	 1.0	 100.0	 1	 71	 0.0; % COW
	35413	 44.5	 0.0	 45.0	 -45.0	 1.0	 100.0	 1	 89	 0.0; % NG
	35415	 65.5	 0.0	 66.0	 -66.0	 1.0	 100.0	 1	 131	 0.0; % NG
	35416	 239.5	 0.0	 240.0	 -240.0	 1.0	 100.0	 1	 479	 0.0; % NG
	35417	 99.5	 0.0	 100.0	 -100.0	 1.0	 100.0	 1	 199	 0.0; % NG
...
];

%% generator cost data
%	2	startup	shutdown	n	c(n-1)	...	c0
mpc.gencost = [
	2	 0.0	 0.0	 3	   0.000000	   2.384000	 -127.700000; % NUC
	2	 0.0	 0.0	 3	   0.000000	   2.517000	 -127.900000; % COW
	2	 0.0	 0.0	 3	   0.000000	   2.463000	 -112.900000; % COW
	2	 0.0	 0.0	 3	   0.000000	   2.281000	 -33.760000; % COW
	2	 0.0	 0.0	 3	   0.000000	   2.386000	 -33.760000; % COW
	2	 0.0	 0.0	 3	   0.001729	  14.430000	   0.000000; % NG
	2	 0.0	 0.0	 3	   0.001729	  13.910000	   0.000000; % COW
	2	 0.0	 0.0	 3	   0.001729	  13.710000	   0.000000; % NUC
	2	 0.0	 0.0	 3	   0.001729	  13.690000	   0.000000; % COW
	2	 0.0	 0.0	 3	   0.000000	  15.220000	 -330.900000; % NG
	2	 0.0	 0.0	 3	   0.000000	  19.490000	 -640.400000; % COW
	2	 0.0	 0.0	 3	   0.000000	  20.020000	 -640.400000; % NG
	2	 0.0	 0.0	 3	   0.032260	  10.950000	  -4.868000; % NG
	2	 0.0	 0.0	 3	   0.032280	  10.900000	  -4.254000; % NG
	2	 0.0	 0.0	 3	   0.001777	  13.370000	  -1.542000; % COW
	2	 0.0	 0.0	 3	   0.000000	  16.900000	 -213.800000; % NG
	2	 0.0	 0.0	 3	   0.000000	  15.730000	 -1064.000000; % COW
	2	 0.0	 0.0	 3	   0.004972	  14.900000	   0.000000; % NG
	2	 0.0	 0.0	 3	   0.004972	  14.420000	   0.000000; % NG
	2	 0.0	 0.0	 3	   0.004972	  15.070000	   0.000000; % NG
	2	 0.0	 0.0	 3	   0.000000	  18.900000	 -39.100000; % PEL
	2	 0.0	 0.0	 3	   0.000000	  16.340000	 -190.900000; % NG
	2	 0.0	 0.0	 3	   0.000000	  17.030000	 -201.300000; % NG
	2	 0.0	 0.0	 3	   0.000000	  18.990000	 -39.100000; % NG
	2	 0.0	 0.0	 3	   0.000000	  18.700000	 -39.100000; % NG
	2	 0.0	 0.0	 3	   0.000000	  19.080000	 -39.100000; % NG
	2	 0.0	 0.0	 3	   0.000000	  19.540000	 -39.100000; % NG
	2	 0.0	 0.0	 3	   0.000000	  19.350000	 -39.100000; % NG
	2	 0.0	 0.0	 3	   0.000000	  19.360000	 -39.100000; % NG
	2	 0.0	 0.0	 3	   0.000000	  18.940000	 -39.100000; % NG
	2	 0.0	 0.0	 3	   0.000000	  19.780000	 -39.100000; % NG
	2	 0.0	 0.0	 3	   0.026260	  11.910000	 -10.450000; % NG
	2	 0.0	 0.0	 3	   0.026260	  11.880000	 -10.450000; % COW
	2	 0.0	 0.0	 3	   0.026380	  12.330000	  -4.156000; % COW
	2	 0.0	 0.0	 3	   0.032230	   9.660000	  -6.705000; % NG
	2	 0.0	 0.0	 3	   0.032230	  10.050000	  -6.687000; % NG
	2	 0.0	 0.0	 3	   0.032270	   9.882000	  -5.586000; % COW
	2	 0.0	 0.0	 3	   0.032270	   9.801000	  -5.586000; % NG
	2	 0.0	 0.0	 3	   0.026360	  11.440000	  -4.796000; % NG
	2	 0.0	 0.0	 3	   0.026360	  11.310000	  -4.796000; % NG
	2	 0.0	 0.0	 3	   0.032280	  10.680000	  -4.937000; % NG
	2	 0.0	 0.0	 3	   0.032280	  10.610000	  -4.937000; % NG
	2	 0.0	 0.0	 3	   0.032280	  10.100000	  -4.937000; % NG
	2	 0.0	 0.0	 3	   0.009369	  13.780000	  -1.130000; % NG
	2	 0.0	 0.0	 3	   0.032270	  10.420000	  -4.989000; % NG
	2	 0.0	 0.0	 3	   0.032270	  10.140000	  -4.989000; % NG
	2	 0.0	 0.0	 3	   0.032270	  10.340000	  -4.989000; % COW
	2	 0.0	 0.0	 3	   0.009368	  14.330000	  -1.304000; % COW
	2	 0.0	 0.0	 3	   0.099310	   0.195000	   0.000000; % NG
	2	 0.0	 0.0	 3	   0.099310	   0.185500	   0.000000; % PEL
	2	 0.0	 0.0	 3	   0.099160	   0.188500	   0.000000; % COW
	2	 0.0	 0.0	 3	   0.099160	   0.185200	   0.000000; % NG
	2	 0.0	 0.0	 3	   0.099160	   0.193000	   0.000000; % PEL
	2	 0.0	 0.0	 3	   0.099070	   0.192700	   0.000000; % PEL
	2	 0.0	 0.0	 3	   0.099070	   0.189000	   0.000000; % NG
	2	 0.0	 0.0	 3	   0.000000	  19.510000	 -77.060000; % PEL
	2	 0.0	 0.0	 3	   0.000000	  18.390000	 -42.850000; % NG
	2	 0.0	 0.0	 3	   0.098820	   0.193400	   0.000000; % NG
	2	 0.0	 0.0	 3	   0.000000	   0.005882	   0.000000; % NG
	2	 0.0	 0.0	 3	   0.000000	   0.005882	   0.000000; % NG
	2	 0.0	 0.0	 3	   0.098640	   0.187000	   0.000000; % NG
	2	 0.0	 0.0	 3	   0.000000	  37.070000	  -7.176000; % COW
	2	 0.0	 0.0	 3	   0.098410	   0.196400	   0.000000; % NG
	2	 0.0	 0.0	 3	   0.098410	   0.187300	   0.000000; % NG
	2	 0.0	 0.0	 3	   0.000000	   0.849400	   0.000000; % NG
	2	 0.0	 0.0	 3	   0.000000	   0.844400	   0.000000; % NG
	2	 0.0	 0.0	 3	   0.000000	   0.851300	   0.000000; % NG
	2	 0.0	 0.0	 3	   0.000000	   0.852000	   0.000000; % NG
	2	 0.0	 0.0	 3	   0.000000	   0.846900	   0.000000; % NG
	2	 0.0	 0.0	 3	   0.000000	   3.982000	   0.000000; % NG
	2	 0.0	 0.0	 3	   0.000000	   3.985000	   0.000000; % NG
	2	 0.0	 0.0	 3	   0.000000	   3.978000	   0.000000; % PEL
	2	 0.0	 0.0	 3	   0.000000	   3.462000	   0.000000; % NG
	2	 0.0	 0.0	 3	   0.000000	   3.461000	   0.000000; % PEL
	2	 0.0	 0.0	 3	   0.000000	   3.463000	   0.000000; % PEL
	2	 0.0	 0.0	 3	   0.000000	   3.415000	   0.000000; % PEL
	2	 0.0	 0.0	 3	   0.000000	   3.419000	   0.000000; % NG
	2	 0.0	 0.0	 3	   0.000000	   3.416000	   0.000000; % PEL
	2	 0.0	 0.0	 3	   0.000000	   3.422000	   0.000000; % COW
	2	 0.0	 0.0	 3	   0.000000	   2.979000	   0.000000; % COW
	2	 0.0	 0.0	 3	   0.000000	   2.977000	   0.000000; % NG
	2	 0.0	 0.0	 3	   0.000000	   2.981000	   0.000000; % NG
	2	 0.0	 0.0	 3	   0.000000	   2.980000	   0.000000; % NG
	2	 0.0	 0.0	 3	   0.000000	   2.977000	   0.000000; % PEL
	2	 0.0	 0.0	 3	   0.000000	   3.032000	   0.000000; % PEL
	2	 0.0	 0.0	 3	   0.000000	  16.070000	  -9.875000; % NG
	2	 0.0	 0.0	 3	   0.001771	  13.080000	  -1.413000; % COW
	2	 0.0	 0.0	 3	   0.001891	  13.650000	   0.000000; % COW
	2	 0.0	 0.0	 3	   0.001893	  14.780000	   0.000000; % NG
	2	 0.0	 0.0	 3	   0.001904	  14.360000	   0.000000; % NG
	2	 0.0	 0.0	 3	   0.001891	  13.590000	   0.000000; % NG
	2	 0.0	 0.0	 3	   0.000000	  16.850000	 -140.300000; % NG
	2	 0.0	 0.0	 3	   0.000000	  16.340000	 -235.800000; % NG
	2	 0.0	 0.0	 3	   0.000000	   1.330000	   0.000000; % NG
	2	 0.0	 0.0	 3	   0.000000	   1.336000	   0.000000; % PEL
	2	 0.0	 0.0	 3	   0.000000	   1.330000	   0.000000; % PEL
	2	 0.0	 0.0	 3	   0.000000	   1.330000	   0.000000; % NG
	2	 0.0	 0.0	 3	   0.000000	   1.331000	   0.000000; % NG
	2	 0.0	 0.0	 3	   0.000000	  17.410000	 -74.490000; % COW
	2	 0.0	 0.0	 3	   0.099100	   0.190400	   0.000000; % PEL
	2	 0.0	 0.0	 3	   0.000000	  16.140000	 -37.780000; % NG
	2	 0.0	 0.0	 3	   0.000000	  16.730000	 -37.780000; % COW
	2	 0.0	 0.0	 3	   0.098580	   0.190300	   0.000000; % NG
	2	 0.0	 0.0	 3	   0.098580	   0.187800	   0.000000; % PEL
	2	 0.0	 0.0	 3	   0.098580	   0.187800	   0.000000; % PEL
	2	 0.0	 0.0	 3	   0.098580	   0.186900	   0.000000; % NG
	2	 0.0	 0.0	 3	   0.098580	   0.189100	   0.000000; % NG
	2	 0.0	 0.0	 3	   0.098490	   0.185700	   0.000000; % NG
	2	 0.0	 0.0	 3	   0.098490	   0.181100	   0.000000; % NG
	2	 0.0	 0.0	 3	   0.098560	   0.179100	   0.000000; % PEL
	2	 0.0	 0.0	 3	   0.098560	   0.179900	   0.000000; % NG
	2	 0.0	 0.0	 3	   0.098560	   0.186700	   0.000000; % NG
	2	 0.0	 0.0	 3	   0.000000	  14.850000	 -20.840000; % NG
	2	 0.0	 0.0	 3	   0.000000	   2.419000	 -58.270000; % NG
	2	 0.0	 0.0	 3	   0.032230	   9.868000	  -6.842000; % NG
	2	 0.0	 0.0	 3	   0.032230	   9.978000	  -6.842000; % NG
	2	 0.0	 0.0	 3	   0.032230	  10.390000	  -6.842000; % NG
	2	 0.0	 0.0	 3	   0.032230	   9.828000	  -6.842000; % NG
	2	 0.0	 0.0	 3	   0.001961	  14.040000	   0.000000; % NG
	2	 0.0	 0.0	 3	   0.001961	  13.420000	   0.000000; % NG
	2	 0.0	 0.0	 3	   0.000000	  15.580000	 -438.800000; % COW
	2	 0.0	 0.0	 3	   0.026400	  11.800000	  -1.823000; % NG
	2	 0.0	 0.0	 3	   0.026400	  11.470000	  -1.823000; % NG
	2	 0.0	 0.0	 3	   0.026400	  11.410000	  -2.093000; % NG
	2	 0.0	 0.0	 3	   0.000000	  15.780000	 -111.400000; % NG
	2	 0.0	 0.0	 3	   0.000000	  16.730000	 -111.400000; % NG
	2	 0.0	 0.0	 3	   0.000000	  19.860000	 -763.900000; % NG
	2	 0.0	 0.0	 3	   0.000000	  20.240000	 -763.900000; % NG
	2	 0.0	 0.0	 3	   0.000000	  19.730000	 -763.900000; % NG
	2	 0.0	 0.0	 3	   0.000000	  21.900000	 -944.300000; % NG
	2	 0.0	 0.0	 3	   0.000000	  21.250000	 -919.600000; % NG
	2	 0.0	 0.0	 3	   0.000000	  20.720000	 -894.900000; % NG
	2	 0.0	 0.0	 3	   0.000000	  20.030000	 -711.700000; % NG
	2	 0.0	 0.0	 3	   0.000000	  20.000000	 -711.700000; % COW
	2	 0.0	 0.0	 3	   0.000000	  19.420000	 -711.700000; % NG
	2	 0.0	 0.0	 3	   0.032290	  10.220000	  -4.425000; % NG
	2	 0.0	 0.0	 3	   0.032290	   9.728000	  -4.425000; % NG
	2	 0.0	 0.0	 3	   0.032290	   9.428000	  -4.425000; % NG
	2	 0.0	 0.0	 3	   0.032270	   9.929000	  -3.588000; % COW
	2	 0.0	 0.0	 3	   0.032270	   9.897000	  -3.588000; % NG
	2	 0.0	 0.0	 3	   0.032270	   9.909000	  -3.588000; % NG
	2	 0.0	 0.0	 3	   0.032270	  10.500000	  -5.023000; % NG
	2	 0.0	 0.0	 3	   0.032270	   9.822000	  -5.023000; % NG
	2	 0.0	 0.0	 3	   0.032250	  10.750000	  -5.469000; % COW
	2	 0.0	 0.0	 3	   0.032250	  10.090000	  -5.469000; % NG
	2	 0.0	 0.0	 3	   0.000000	  19.310000	 -54.680000; % NG
	2	 0.0	 0.0	 3	   0.000000	  19.280000	 -712.500000; % NG
	2	 0.0	 0.0	 3	   0.000000	  19.790000	 -712.500000; % COW
	2	 0.0	 0.0	 3	   0.000000	  19.400000	 -712.500000; % COW
	2	 0.0	 0.0	 3	   0.000000	  19.080000	 -34.910000; % NG
	2	 0.0	 0.0	 3	   0.000000	  18.560000	 -34.910000; % NG
	2	 0.0	 0.0	 3	   0.000000	  18.970000	 -34.910000; % NG
	2	 0.0	 0.0	 3	   0.000000	  15.350000	 -34.480000; % PEL
	2	 0.0	 0.0	 3	   0.000000	  16.510000	 -34.480000; % PEL
	2	 0.0	 0.0	 3	   0.000000	  16.100000	 -34.480000; % NG
	2	 0.0	 0.0	 3	   0.000000	  16.150000	 -27.070000; % NG
	2	 0.0	 0.0	 3	   0.000000	  17.040000	  -6.425000; % NG
	2	 0.0	 0.0	 3	   0.000000	  16.590000	  -6.425000; % NG
	2	 0.0	 0.0	 3	   0.035020	   9.636000	  -4.530000; % NG
	2	 0.0	 0.0	 3	   0.026350	  11.010000	  -4.120000; % COW
	2	 0.0	 0.0	 3	   0.032290	  10.270000	  -4.176000; % NG
	2	 0.0	 0.0	 3	   0.098780	   0.184500	   0.000000; % NG
	2	 0.0	 0.0	 3	   0.098780	   0.184000	   0.000000; % NG
	2	 0.0	 0.0	 3	   0.098780	   0.187100	   0.000000; % NG
	2	 0.0	 0.0	 3	   0.000000	   2.010000	   0.000000; % PEL
	2	 0.0	 0.0	 3	   0.000000	   2.013000	   0.000000; % NG
	2	 0.0	 0.0	 3	   0.000000	   2.013000	   0.000000; % PEL
	2	 0.0	 0.0	 3	   0.098580	   0.193800	   0.000000; % PEL
	2	 0.0	 0.0	 3	   0.098580	   0.189300	   0.000000; % NG
	2	 0.0	 0.0	 3	   0.098580	   0.194500	   0.000000; % NG
	2	 0.0	 0.0	 3	   0.098580	   0.187500	   0.000000; % NG
	2	 0.0	 0.0	 3	   0.098450	   0.190400	   0.000000; % COW
	2	 0.0	 0.0	 3	   0.098780	   0.190300	   0.000000; % NG
	2	 0.0	 0.0	 3	   0.000000	   4.691000	   0.000000; % PEL
	2	 0.0	 0.0	 3	   0.000000	   4.693000	   0.000000; % NG
	2	 0.0	 0.0	 3	   0.000000	   4.690000	   0.000000; % NG
	2	 0.0	 0.0	 3	   0.000000	   4.690000	   0.000000; % NG
	2	 0.0	 0.0	 3	   0.000000	   1.492000	   0.000000; % NG
	2	 0.0	 0.0	 3	   0.000000	   1.487000	   0.000000; % NG
	2	 0.0	 0.0	 3	   0.000000	   1.485000	   0.000000; % PEL
	2	 0.0	 0.0	 3	   0.000000	   2.043000	   0.000000; % NG
	2	 0.0	 0.0	 3	   0.000000	   2.043000	   0.000000; % NG
	2	 0.0	 0.0	 3	   0.000000	   3.930000	   0.000000; % PEL
	2	 0.0	 0.0	 3	   0.000000	   3.938000	   0.000000; % NG
	2	 0.0	 0.0	 3	   0.000000	   3.931000	   0.000000; % NG
	2	 0.0	 0.0	 3	   0.000000	   3.836000	   0.000000; % COW
	2	 0.0	 0.0	 3	   0.000000	   3.946000	   0.000000; % PEL
	2	 0.0	 0.0	 3	   0.000000	   4.084000	   0.000000; % COW
	2	 0.0	 0.0	 3	   0.000000	   4.084000	   0.000000; % NG
	2	 0.0	 0.0	 3	   0.000000	   3.725000	   0.000000; % NG
	2	 0.0	 0.0	 3	   0.000000	   4.297000	   0.000000; % NG
	2	 0.0	 0.0	 3	   0.098450	   0.182400	   0.000000; % NG
	2	 0.0	 0.0	 3	   0.098450	   0.180000	   0.000000; % NG
	2	 0.0	 0.0	 3	   0.000000	   3.503000	   0.000000; % NG
	2	 0.0	 0.0	 3	   0.000000	   4.470000	   0.000000; % NG
	2	 0.0	 0.0	 3	   0.000000	   4.505000	   0.000000; % COW
	2	 0.0	 0.0	 3	   0.000000	   3.418000	   0.000000; % NG
	2	 0.0	 0.0	 3	   0.000000	   3.328000	   0.000000; % NG
	2	 0.0	 0.0	 3	   0.000000	   0.002042	   0.000000; % NG
	2	 0.0	 0.0	 3	   0.000000	   2.973000	   0.000000; % NG
...
];

%% branch data
%	fbus	tbus	r	x	b	rateA	rateB	rateC	ratio	angle	status	angmin	angmax
mpc.branch = [
	35250	 35260	 0.00019773	 0.00244293	 0.100707	 1147.0	 1147.0	 1147.0	 0.0	 0.0	 1	 -30.0	 30.0;
	35250	 35293	 0.000426248	 0.00560343	 0.400572	 1813.0	 1813.0	 1813.0	 0.0	 0.0	 1	 -30.0	 30.0;
	35250	 36372	 0.000183924	 0.00300313	 0.131209	 1406.0	 1406.0	 1406.0	 0.0	 0.0	 1	 -30.0	 30.0;
	35251	 35650	 0.00088641	 0.0119996	 1.09115	 2385.0	 2385.0	 2385.0	 0.0	 0.0	 1	 -30.0	 30.0;
	35252	 35934	 0.000169	 0.002758	 0.120496	 2441.0	 2441.0	 2441.0	 0.0	 0.0	 1	 -30.0	 30.0;
	35252	 35953	 0.000557	 0.007121	 0.298118	 2444.0	 2444.0	 2444.0	 0.0	 0.0	 1	 -30.0	 30.0;
	35253	 35612	 0.000437484	 0.00243856	 0.0885225	 669.0	 669.0	 669.0	 0.0	 0.0	 1	 -30.0	 30.0;
	35253	 35619	 0.00122967	 0.00705217	 0.241902	 669.0	 669.0	 669.0	 0.0	 0.0	 1	 -30.0	 30.0;
	35253	 35716	 0.00193582	 0.0274015	 1.17205	 1258.0	 1258.0	 1258.0	 0.0	 0.0	 1	 -30.0	 30.0;
	35254	 35441	 0.000498829	 0.0060975	 0.436053	 1725.0	 1725.0	 1725.0	 0.0	 0.0	 1	 -30.0	 30.0;
	35254	 36253	 8.54675e-05	 0.00158444	 0.146562	 2840.0	 2840.0	 2840.0	 0.0	 0.0	 1	 -30.0	 30.0;
	35254	 36254	 0.000184723	 0.00243486	 0.0958469	 1354.4	 1354.4	 1354.4	 0.0	 0.0	 1	 -30.0	 30.0;
	35255	 35509	 0.00129536	 0.0158753	 1.13968	 1725.0	 1725.0	 1725.0	 0.0	 0.0	 1	 -30.0	 30.0;
	35255	 36439	 0.000144148	 0.00209213	 0.0834739	 1258.0	 1258.0	 1258.0	 0.0	 0.0	 1	 -30.0	 30.0;
	35255	 36483	 0.000127392	 0.00143705	 0.0582023	 1067.0	 1067.0	 1067.0	 0.0	 0.0	 1	 -30.0	 30.0;
	35256	 35555	 0.000976647	 0.0119534	 0.856446	 1725.0	 1725.0	 1725.0	 0.0	 0.0	 1	 -30.0	 30.0;
	35256	 35774	 0.000228901	 0.0037025	 0.160596	 1392.0	 1392.0	 1392.0	 0.0	 0.0	 1	 -30.0	 30.0;
	35257	 35569	 0.00180164	 0.0100484	 0.365076	 669.0	 669.0	 669.0	 0.0	 0.0	 1	 -30.0	 30.0;
	35257	 35570	 0.000500045	 0.00513483	 0.360043	 1590.0	 1590.0	 1590.0	 0.0	 0.0	 1	 -30.0	 30.0;
	35257	 36515	 0.000235638	 0.00133314	 0.046956	 669.0	 669.0	 669.0	 0.0	 0.0	 1	 -30.0	 30.0;
	35257	 36517	 0.00103743	 0.00675988	 0.255763	 744.0	 744.0	 744.0	 0.0	 0.0	 1	 -30.0	 30.0;
	35258	 36190	 0.000498034	 0.00511417	 0.358592	 1590.0	 1590.0	 1590.0	 0.0	 0.0	 1	 -30.0	 30.0;
	35258	 36277	 0.000173999	 0.00212606	 0.151954	 1725.0	 1725.0	 1725.0	 0.0	 0.0	 1	 -30.0	 30.0;
	35258	 36282	 0.000229391	 0.0012786	 0.0464129	 669.0	 669.0	 669.0	 0.0	 0.0	 1	 -30.0	 30.0;
	35259	 36367	 0.000246122	 0.0013363	 0.0115978	 462.0	 462.0	 462.0	 0.0	 0.0	 1	 -30.0	 30.0;
	35259	 76211	 0.000266124	 0.00267741	 0.027643	 708.0	 708.0	 708.0	 0.0	 0.0	 1	 -30.0	 30.0;
	35261	 35267	 0.000159708	 0.00171032	 0.0686064	 1028.0	 1028.0	 1028.0	 0.0	 0.0	 1	 -30.0	 30.0;
	35261	 35509	 0.00276421	 0.0356717	 1.51298	 1177.0	 1177.0	 1177.0	 0.0	 0.0	 1	 -30.0	 30.0;
	35262	 35602	 0.000226205	 0.00255178	 0.103355	 1067.0	 1067.0	 1067.0	 0.0	 0.0	 1	 -30.0	 30.0;
	35262	 35992	 0.000503692	 0.00280765	 0.101922	 669.0	 669.0	 669.0	 0.0	 0.0	 1	 -30.0	 30.0;
	35263	 35512	 0.00277227	 0.0247154	 0.0104424	 351.0	 351.0	 351.0	 0.0	 0.0	 1	 -30.0	 30.0;
	35263	 35515	 0.00793092	 0.0316501	 0.0055725	 203.2	 203.2	 203.2	 0.0	 0.0	 1	 -30.0	 30.0;
	35263	 35529	 0.00184376	 0.0224675	 0.00742698	 386.0	 386.0	 386.0	 0.0	 0.0	 1	 -30.0	 30.0;
	35263	 36493	 0.0104813	 0.0366768	 0.0121555	 159.0	 159.0	 159.0	 0.0	 0.0	 1	 -30.0	 30.0;
	35263	 36501	 0.0325783	 0.0828788	 0.0209772	 118.0	 118.0	 118.0	 0.0	 0.0	 1	 -30.0	 30.0;
	35264	 75682	 0.000359821	 0.0052585	 0.0201474	 1004.6	 1004.6	 1004.6	 0.0	 0.0	 1	 -30.0	 30.0;
	35265	 35266	 1e-05	 6.7e-05	 0.002527	 995.0	 995.0	 995.0	 0.0	 0.0	 1	 -30.0	 30.0;
	35265	 35547	 0.000499488	 0.00703449	 0.298637	 1346.1	 1346.1	 1346.1	 0.0	 0.0	 1	 -30.0	 30.0;
	35266	 35432	 0.001321	 0.007367	 0.267557	 1086.9	 1086.9	 1086.9	 0.0	 0.0	 1	 -30.0	 30.0;
	35266	 35664	 0.001325	 0.00766	 0.280154	 691.0	 691.0	 691.0	 0.0	 0.0	 1	 -30.0	 30.0;
	35267	 35535	 0.000799258	 0.0062886	 0.23949	 832.0	 832.0	 832.0	 0.0	 0.0	 1	 -30.0	 30.0;
	35267	 36031	 0.000506752	 0.0028247	 0.102542	 669.0	 669.0	 669.0	 0.0	 0.0	 1	 -30.0	 30.0;
	35268	 35806	 0.000587866	 0.00462482	 0.176098	 832.0	 832.0	 832.0	 0.0	 0.0	 1	 -30.0	 30.0;
	35268	 36170	 0.00180109	 0.0238296	 0.943263	 1177.0	 1177.0	 1177.0	 0.0	 0.0	 1	 -30.0	 30.0;
	35268	 38878	 0.000462789	 0.00881356	 0.664292	 2354.0	 2354.0	 2354.0	 0.0	 0.0	 1	 -30.0	 30.0;
	35269	 36531	 0.0040441	 0.0234604	 0.861841	 691.0	 691.0	 691.0	 0.0	 0.0	 1	 -30.0	 30.0;
	35269	 36583	 0.000135815	 0.0014981	 0.0565998	 1028.0	 1028.0	 1028.0	 0.0	 0.0	 1	 -30.0	 30.0;
	35269	 38176	 0.00369475	 0.0356097	 1.41835	 947.0	 947.0	 947.0	 0.0	 0.0	 1	 -30.0	 30.0;
	35270	 36589	 0.000814264	 0.00530513	 0.200689	 744.0	 744.0	 744.0	 0.0	 0.0	 1	 -30.0	 30.0;
	35270	 36590	 7.9989e-05	 0.00112613	 0.0477835	 1258.0	 1258.0	 1258.0	 0.0	 0.0	 1	 -30.0	 30.0;
	35271	 35431	 0.000610112	 0.00340092	 0.123463	 669.0	 669.0	 669.0	 0.0	 0.0	 1	 -30.0	 30.0;
	35272	 35647	 0.0197463	 0.0688305	 0.0159638	 142.0	 142.0	 142.0	 0.0	 0.0	 1	 -30.0	 30.0;
	35272	 36571	 0.0217932	 0.0645058	 0.0120009	 118.0	 118.0	 118.0	 0.0	 0.0	 1	 -30.0	 30.0;
	35272	 36574	 0.0163447	 0.037078	 0.011836	 118.0	 118.0	 118.0	 0.0	 0.0	 1	 -30.0	 30.0;
	35272	 36575	 0.00817627	 0.0216088	 0.00505795	 118.0	 118.0	 118.0	 0.0	 0.0	 1	 -30.0	 30.0;
	35272	 36598	 0.0170136	 0.0662009	 0.0176863	 159.0	 159.0	 159.0	 0.0	 0.0	 1	 -30.0	 30.0;
	35273	 36254	 0.00107286	 0.0059813	 0.217185	 669.0	 669.0	 669.0	 0.0	 0.0	 1	 -30.0	 30.0;
	35273	 36590	 0.00017503	 0.00146709	 0.0564077	 1185.0	 1185.0	 1185.0	 0.0	 0.0	 1	 -30.0	 30.0;
	35274	 36148	 0.0251108	 0.0652025	 0.015829	 118.0	 118.0	 118.0	 0.0	 0.0	 1	 -30.0	 30.0;
	35275	 35701	 0.00387771	 0.0147394	 0.00412597	 159.0	 159.0	 159.0	 0.0	 0.0	 1	 -30.0	 30.0;
	35275	 76191	 0.0120306	 0.0716833	 0.0188643	 205.0	 205.0	 205.0	 0.0	 0.0	 1	 -30.0	 30.0;
	35276	 35717	 0.00192396	 0.00711374	 0.00210738	 159.0	 159.0	 159.0	 0.0	 0.0	 1	 -30.0	 30.0;
	35276	 35729	 0.00559358	 0.0136916	 0.00374559	 118.0	 118.0	 118.0	 0.0	 0.0	 1	 -30.0	 30.0;
	35277	 36408	 0.0147921	 0.0371857	 0.00963422	 118.0	 118.0	 118.0	 0.0	 0.0	 1	 -30.0	 30.0;
	35277	 36410	 0.0426584	 0.101073	 0.0295863	 118.0	 118.0	 118.0	 0.0	 0.0	 1	 -30.0	 30.0;
	35277	 75767	 0.0112698	 0.0431855	 0.0195348	 185.0	 185.0	 185.0	 0.0	 0.0	 1	 -30.0	 30.0;
	35278	 35439	 0.0200052	 0.0602529	 0.429281	 294.0	 294.0	 294.0	 0.0	 0.0	 1	 -30.0	 30.0;
	35278	 35565	 0.000607808	 0.00270618	 0.0214572	 398.0	 398.0	 398.0	 0.0	 0.0	 1	 -30.0	 30.0;
	35279	 35435	 0.0188642	 0.0461794	 0.0126347	 118.0	 118.0	 118.0	 0.0	 0.0	 1	 -30.0	 30.0;
	35279	 35678	 0.015987	 0.0491038	 0.00847551	 118.0	 118.0	 118.0	 0.0	 0.0	 1	 -30.0	 30.0;
	35279	 75820	 0.0103746	 0.0346104	 0.00877809	 142.0	 142.0	 142.0	 0.0	 0.0	 1	 -30.0	 30.0;
	35280	 36523	 0.010522	 0.0334114	 0.00937356	 142.0	 142.0	 142.0	 0.0	 0.0	 1	 -30.0	 30.0;
	35281	 36419	 0.0192277	 0.0446374	 0.0136006	 130.0	 130.0	 130.0	 0.0	 0.0	 1	 -30.0	 30.0;
	35281	 76049	 0.00750827	 0.0198484	 0.00576658	 128.0	 128.0	 128.0	 0.0	 0.0	 1	 -30.0	 30.0;
	35282	 36357	 0.0155831	 0.0444708	 0.351148	 294.0	 294.0	 294.0	 0.0	 0.0	 1	 -30.0	 30.0;
	35282	 36444	 0.0220392	 0.0630847	 0.499958	 294.0	 294.0	 294.0	 0.0	 0.0	 1	 -30.0	 30.0;
	35282	 36519	 0.00271898	 0.00787239	 0.0598127	 294.0	 294.0	 294.0	 0.0	 0.0	 1	 -30.0	 30.0;
	35284	 36292	 0.00832043	 0.0235675	 0.0369869	 196.0	 196.0	 196.0	 0.0	 0.0	 1	 -30.0	 30.0;
	35285	 36522	 0.0319544	 0.0821432	 0.00127129	 59.0	 59.0	 59.0	 0.0	 0.0	 1	 -30.0	 30.0;
	35285	 36537	 0.0141679	 0.048601	 0.000727696	 71.0	 71.0	 71.0	 0.0	 0.0	 1	 -30.0	 30.0;
	35286	 36495	 0.00243974	 0.0200059	 0.036042	 397.0	 397.0	 397.0	 0.0	 0.0	 1	 -30.0	 30.0;
	35286	 36503	 0.00352292	 0.00997728	 0.0156558	 196.0	 196.0	 196.0	 0.0	 0.0	 1	 -30.0	 30.0;
	35286	 76243	 0.00376926	 0.0222555	 0.0391097	 321.0	 321.0	 321.0	 0.0	 0.0	 1	 -30.0	 30.0;
	35287	 35711	 0.0078665	 0.0207954	 0.00604173	 128.0	 128.0	 128.0	 0.0	 0.0	 1	 -30.0	 30.0;
	35287	 75845	 0.0229621	 0.0543829	 0.0159116	 118.0	 118.0	 118.0	 0.0	 0.0	 1	 -30.0	 30.0;
	35288	 35490	 0.254591	 0.68435	 0.00970808	 59.0	 59.0	 59.0	 0.0	 0.0	 1	 -30.0	 30.0;
	35288	 36063	 0.0649698	 0.177508	 0.00301525	 64.0	 64.0	 64.0	 0.0	 0.0	 1	 -30.0	 30.0;
	35288	 75836	 0.0277789	 0.101745	 0.00257094	 88.0	 88.0	 88.0	 0.0	 0.0	 1	 -30.0	 30.0;
	35288	 76302	 0.128506	 0.314648	 0.00538183	 59.0	 59.0	 59.0	 0.0	 0.0	 1	 -30.0	 30.0;
	35289	 35430	 0.00323981	 0.0118558	 0.00248954	 153.3	 153.3	 153.3	 0.0	 0.0	 1	 -30.0	 30.0;
	35289	 75683	 0.00547311	 0.0173786	 0.00487529	 142.0	 142.0	 142.0	 0.0	 0.0	 1	 -30.0	 30.0;
	35290	 76046	 0.0750392	 0.153579	 0.00377968	 59.0	 59.0	 59.0	 0.0	 0.0	 1	 -30.0	 30.0;
	35291	 36593	 0.108524	 0.257044	 0.00470079	 59.0	 59.0	 59.0	 0.0	 0.0	 1	 -30.0	 30.0;
	35291	 76092	 0.141131	 0.334329	 0.0061153	 59.0	 59.0	 59.0	 0.0	 0.0	 1	 -30.0	 30.0;
	35291	 76172	 0.240229	 0.611634	 0.00968465	 59.0	 59.0	 59.0	 0.0	 0.0	 1	 -30.0	 30.0;
	35291	 76343	 0.0320578	 0.105794	 0.00171392	 71.0	 71.0	 71.0	 0.0	 0.0	 1	 -30.0	 30.0;
	35292	 36288	 0.000380458	 0.00253725	 0.00478189	 366.0	 366.0	 366.0	 0.0	 0.0	 1	 -30.0	 30.0;
	35293	 35599	 0.00023684	 0.0033346	 0.141507	 1258.0	 1258.0	 1258.0	 0.0	 0.0	 1	 -30.0	 30.0;
	35293	 36002	 0.000452387	 0.00252164	 0.0915386	 669.0	 669.0	 669.0	 0.0	 0.0	 1	 -30.0	 30.0;
	35294	 36592	 0.00472624	 0.018183	 0.00496638	 159.0	 159.0	 159.0	 0.0	 0.0	 1	 -30.0	 30.0;
	35294	 36594	 0.0183861	 0.0715441	 0.0191146	 159.0	 159.0	 159.0	 0.0	 0.0	 1	 -30.0	 30.0;
	35295	 36144	 0.0259572	 0.0697002	 0.0158002	 118.0	 118.0	 118.0	 0.0	 0.0	 1	 -30.0	 30.0;
	35296	 35547	 0.000876392	 0.00488561	 0.177381	 669.0	 669.0	 669.0	 0.0	 0.0	 1	 -30.0	 30.0;
	35296	 35550	 0.00106369	 0.00593014	 0.215326	 669.0	 669.0	 669.0	 0.0	 0.0	 1	 -30.0	 30.0;
	35297	 35542	 0.00260769	 0.014356	 0.00310157	 185.0	 185.0	 185.0	 0.0	 0.0	 1	 -30.0	 30.0;
	35297	 35543	 0.0218347	 0.051712	 0.0151298	 118.0	 118.0	 118.0	 0.0	 0.0	 1	 -30.0	 30.0;
	35297	 35740	 0.018287	 0.0603575	 0.0156479	 142.0	 142.0	 142.0	 0.0	 0.0	 1	 -30.0	 30.0;
	35298	 36142	 0.0187696	 0.0596084	 0.0167258	 142.0	 142.0	 142.0	 0.0	 0.0	 1	 -30.0	 30.0;
	35298	 36167	 0.0233987	 0.0580864	 0.015447	 118.0	 118.0	 118.0	 0.0	 0.0	 1	 -30.0	 30.0;
	35298	 76104	 0.0220914	 0.0532443	 0.0150354	 118.0	 118.0	 118.0	 0.0	 0.0	 1	 -30.0	 30.0;
	35300	 35611	 0.0340527	 0.0944686	 0.0200553	 118.0	 118.0	 118.0	 0.0	 0.0	 1	 -30.0	 30.0;
	35300	 35701	 0.00928844	 0.0264302	 0.00532369	 118.0	 118.0	 118.0	 0.0	 0.0	 1	 -30.0	 30.0;
	35300	 75756	 0.0416344	 0.111834	 0.0253613	 118.0	 118.0	 118.0	 0.0	 0.0	 1	 -30.0	 30.0;
	35301	 35696	 0.015077	 0.0441599	 0.00839067	 118.0	 118.0	 118.0	 0.0	 0.0	 1	 -30.0	 30.0;
	35301	 76299	 0.0594958	 0.15741	 0.0368925	 118.0	 118.0	 118.0	 0.0	 0.0	 1	 -30.0	 30.0;
	35301	 76303	 0.0121635	 0.030577	 0.0079218	 118.0	 118.0	 118.0	 0.0	 0.0	 1	 -30.0	 30.0;
	35302	 36421	 0.0210966	 0.0542383	 0.0134326	 118.0	 118.0	 118.0	 0.0	 0.0	 1	 -30.0	 30.0;
	35302	 75712	 0.0528378	 0.139762	 0.0327471	 118.0	 118.0	 118.0	 0.0	 0.0	 1	 -30.0	 30.0;
	35302	 76235	 0.0170053	 0.0437177	 0.0108265	 118.0	 118.0	 118.0	 0.0	 0.0	 1	 -30.0	 30.0;
	35303	 35504	 0.0117987	 0.0327311	 0.0536146	 196.0	 196.0	 196.0	 0.0	 0.0	 1	 -30.0	 30.0;
	35303	 35735	 0.00788929	 0.0237979	 0.0407865	 213.0	 213.0	 213.0	 0.0	 0.0	 1	 -30.0	 30.0;
	35303	 36495	 0.0111373	 0.0468998	 0.0824338	 265.0	 265.0	 265.0	 0.0	 0.0	 1	 -30.0	 30.0;
	35304	 35988	 0.000240247	 0.00133912	 0.0486096	 669.0	 669.0	 669.0	 0.0	 0.0	 1	 -30.0	 30.0;
	35305	 35669	 0.0113506	 0.0321549	 0.0504727	 196.0	 196.0	 196.0	 0.0	 0.0	 1	 -30.0	 30.0;
	35305	 36292	 0.0285715	 0.123433	 0.208695	 265.0	 265.0	 265.0	 0.0	 0.0	 1	 -30.0	 30.0;
	35305	 75682	 0.0131718	 0.0365431	 0.0598647	 296.0	 296.0	 296.0	 0.0	 0.0	 1	 -30.0	 30.0;
	35306	 35554	 0.00467673	 0.0131123	 0.0210089	 196.0	 196.0	 196.0	 0.0	 0.0	 1	 -30.0	 30.0;
	35307	 35842	 0.00268806	 0.00675706	 0.00175051	 118.0	 118.0	 118.0	 0.0	 0.0	 1	 -30.0	 30.0;
	35307	 35843	 0.00304395	 0.00765168	 0.00198227	 118.0	 118.0	 118.0	 0.0	 0.0	 1	 -30.0	 30.0;
	35308	 36653	 0.00209378	 0.0148054	 0.125545	 695.4	 695.4	 695.4	 0.0	 0.0	 1	 -30.0	 30.0;
	35308	 76853	 0.015104	 0.0426803	 0.343708	 294.0	 294.0	 294.0	 0.0	 0.0	 1	 -30.0	 30.0;
	35309	 37069	 0.00152523	 0.0107826	 2.24067	 1216.0	 1216.0	 1216.0	 0.0	 0.0	 1	 -30.0	 30.0;
	35309	 37399	 0.000511523	 0.00391945	 0.682963	 1216.0	 1216.0	 1216.0	 0.0	 0.0	 1	 -30.0	 30.0;
	35309	 37678	 0.000338144	 0.00475295	 1.8808	 2896.0	 2896.0	 2896.0	 0.0	 0.0	 1	 -30.0	 30.0;
	35310	 37071	 0.000887474	 0.00744132	 0.286254	 863.0	 863.0	 863.0	 0.0	 0.0	 1	 -30.0	 30.0;
	35310	 37632	 0.00195214	 0.0127297	 0.482157	 744.0	 744.0	 744.0	 0.0	 0.0	 1	 -30.0	 30.0;
	35311	 36648	 0.000354853	 0.00500066	 1.16441	 1925.0	 1925.0	 1925.0	 0.0	 0.0	 1	 -30.0	 30.0;
	35311	 36774	 7.33008e-05	 0.00137472	 0.275425	 2213.0	 2213.0	 2213.0	 0.0	 0.0	 1	 -30.0	 30.0;
	35311	 36974	 0.000207977	 0.00159297	 0.277422	 1216.0	 1216.0	 1216.0	 0.0	 0.0	 1	 -30.0	 30.0;
	35312	 37031	 0.000730856	 0.0106532	 3.45718	 2775.0	 2775.0	 2775.0	 0.0	 0.0	 1	 -30.0	 30.0;
	35312	 37069	 0.00117938	 0.00893944	 1.60314	 1216.0	 1216.0	 1216.0	 0.0	 0.0	 1	 -30.0	 30.0;
	35312	 37399	 0.000906009	 0.0069489	 1.21257	 1216.0	 1216.0	 1216.0	 0.0	 0.0	 1	 -30.0	 30.0;
	35312	 37460	 0.00217256	 0.015427	 3.22631	 1216.0	 1216.0	 1216.0	 0.0	 0.0	 1	 -30.0	 30.0;
	35313	 37017	 0.000896959	 0.0050003	 0.181547	 669.0	 669.0	 669.0	 0.0	 0.0	 1	 -30.0	 30.0;
	35313	 37276	 0.000308478	 0.00434347	 0.184335	 1258.0	 1258.0	 1258.0	 0.0	 0.0	 1	 -30.0	 30.0;
	35314	 36648	 0.0013256	 0.0101839	 1.78136	 1216.0	 1216.0	 1216.0	 0.0	 0.0	 1	 -30.0	 30.0;
	35314	 37471	 0.000103662	 0.000729831	 0.150763	 1216.0	 1216.0	 1216.0	 0.0	 0.0	 1	 -30.0	 30.0;
	35315	 36833	 0.0018796	 0.0104839	 0.380927	 669.0	 669.0	 669.0	 0.0	 0.0	 1	 -30.0	 30.0;
	35316	 36685	 0.000315122	 0.00241388	 0.420445	 1216.0	 1216.0	 1216.0	 0.0	 0.0	 1	 -30.0	 30.0;
	35316	 37467	 0.00070505	 0.00533574	 0.954688	 1216.0	 1216.0	 1216.0	 0.0	 0.0	 1	 -30.0	 30.0;
	35317	 36685	 0.000274472	 0.00210241	 0.366172	 1216.0	 1216.0	 1216.0	 0.0	 0.0	 1	 -30.0	 30.0;
	35318	 37189	 0.000294124	 0.00222431	 0.397567	 1216.0	 1216.0	 1216.0	 0.0	 0.0	 1	 -30.0	 30.0;
	35318	 37534	 0.000150887	 0.0012752	 0.22999	 1273.0	 1273.0	 1273.0	 0.0	 0.0	 1	 -30.0	 30.0;
	35319	 37069	 0.000422591	 0.00297611	 0.615041	 1216.0	 1216.0	 1216.0	 0.0	 0.0	 1	 -30.0	 30.0;
	35320	 36833	 0.00193363	 0.0107857	 0.391915	 669.0	 669.0	 669.0	 0.0	 0.0	 1	 -30.0	 30.0;
	35320	 37480	 0.00120148	 0.0114906	 0.452523	 947.0	 947.0	 947.0	 0.0	 0.0	 1	 -30.0	 30.0;
	35321	 37409	 0.000299211	 0.00210688	 0.435308	 1216.0	 1216.0	 1216.0	 0.0	 0.0	 1	 -30.0	 30.0;
	35321	 37422	 9.88317e-05	 0.000756947	 0.131814	 1216.0	 1216.0	 1216.0	 0.0	 0.0	 1	 -30.0	 30.0;
	35321	 42621	 0.000104847	 0.000824752	 0.172059	 1273.0	 1273.0	 1273.0	 0.0	 0.0	 1	 -30.0	 30.0;
	35322	 37031	 0.000739632	 0.00721839	 1.29676	 1387.0	 1387.0	 1387.0	 0.0	 0.0	 1	 -30.0	 30.0;
	35322	 37275	 3.17452e-05	 0.000500906	 0.201056	 3146.0	 3146.0	 3146.0	 0.0	 0.0	 1	 -30.0	 30.0;
	35323	 36835	 0.000215779	 0.00120273	 0.0436588	 669.0	 669.0	 669.0	 0.0	 0.0	 1	 -30.0	 30.0;
...